Version 4.1
SHEET 1 3500 1084
WIRE 384 -96 336 -96
WIRE 800 -80 752 -80
WIRE 80 16 -128 16
WIRE 624 16 80 16
WIRE 80 48 80 16
WIRE 80 48 16 48
WIRE 112 48 80 48
WIRE -128 64 -128 16
WIRE 1024 64 544 64
WIRE 336 112 336 -96
WIRE 384 112 336 112
WIRE 752 112 752 -80
WIRE 800 112 752 112
WIRE 800 128 800 112
WIRE 384 144 384 112
WIRE 16 160 16 128
WIRE 16 160 -16 160
WIRE 112 160 112 128
WIRE 352 160 112 160
WIRE 640 160 608 160
WIRE 992 176 976 176
WIRE 16 192 16 160
WIRE 112 192 112 160
WIRE 352 192 304 192
WIRE 640 208 576 208
WIRE 544 240 544 64
WIRE 544 240 528 240
WIRE 640 240 544 240
WIRE 992 256 992 176
WIRE 992 256 976 256
WIRE 1040 256 992 256
WIRE 1136 256 1120 256
WIRE 1168 256 1136 256
WIRE 1264 256 1248 256
WIRE 1296 256 1264 256
WIRE 1392 256 1376 256
WIRE 64 272 16 272
WIRE 112 272 64 272
WIRE 64 288 64 272
WIRE 304 288 304 272
WIRE 352 288 304 288
WIRE 576 288 576 208
WIRE 640 288 576 288
WIRE 1008 304 976 304
WIRE -16 320 -16 160
WIRE 352 320 -16 320
WIRE 1264 320 1136 320
WIRE 1392 320 1264 320
WIRE 1024 336 1024 64
WIRE 1024 336 976 336
WIRE 1264 336 1264 320
WIRE 1024 352 976 352
WIRE 384 368 384 336
WIRE 624 368 624 16
WIRE 640 368 624 368
WIRE 576 464 576 288
WIRE 1024 464 1024 352
WIRE 1024 464 576 464
WIRE 608 480 608 160
WIRE 640 480 640 400
WIRE 640 480 608 480
WIRE 1008 480 1008 304
WIRE 1008 480 640 480
WIRE 608 496 608 480
WIRE 832 496 832 432
FLAG -128 144 0
FLAG 64 288 0
FLAG 384 -16 0
FLAG 384 448 0
FLAG 464 304 0
FLAG 608 496 0
FLAG 800 0 0
FLAG 832 576 0
FLAG 1264 336 0
SYMBOL voltage -128 48 R0
WINDOW 123 0 0 Left 0
WINDOW 39 0 0 Left 0
SYMATTR InstName V1
SYMATTR Value SINE(0 1 400)
SYMBOL res 0 32 R0
SYMATTR InstName R1
SYMATTR Value 350
SYMBOL res 0 176 R0
SYMATTR InstName R2
SYMATTR Value 350
SYMBOL res 96 32 R0
SYMATTR InstName R3
SYMATTR Value 350
SYMBOL res 96 176 R0
SYMATTR InstName R4
SYMATTR Value {350+dR(k)}
SYMBOL res 288 176 R0
SYMATTR InstName R5
SYMATTR Value 499
SYMBOL OpAmps\\AD8221 384 240 R0
SYMATTR InstName U1
SYMBOL OpAmps\\AD630 736 160 R0
SYMATTR InstName U2
SYMBOL res 1136 240 R90
WINDOW 0 0 56 VBottom 2
WINDOW 3 32 56 VTop 2
SYMATTR InstName R6
SYMATTR Value 4.99K
SYMBOL res 1264 240 R90
WINDOW 0 0 56 VBottom 2
WINDOW 3 32 56 VTop 2
SYMATTR InstName R7
SYMATTR Value 4.99K
SYMBOL res 1392 240 R90
WINDOW 0 0 56 VBottom 2
WINDOW 3 32 56 VTop 2
SYMATTR InstName R8
SYMATTR Value 4.99K
SYMBOL cap 1120 256 R0
SYMATTR InstName C1
SYMATTR Value 2µ
SYMBOL cap 1248 256 R0
SYMATTR InstName C2
SYMATTR Value 2µ
SYMBOL cap 1376 256 R0
SYMATTR InstName C3
SYMATTR Value 2µ
SYMBOL voltage 384 -112 R0
WINDOW 123 0 0 Left 0
WINDOW 39 0 0 Left 0
SYMATTR InstName V2
SYMATTR Value +15
SYMBOL voltage 384 352 R0
WINDOW 123 0 0 Left 0
WINDOW 39 0 0 Left 0
SYMATTR InstName V3
SYMATTR Value -15
SYMBOL voltage 800 -96 R0
WINDOW 123 0 0 Left 0
WINDOW 39 0 0 Left 0
SYMATTR InstName V4
SYMATTR Value +15
SYMBOL voltage 832 480 R0
WINDOW 123 0 0 Left 0
WINDOW 39 0 0 Left 0
SYMATTR InstName V5
SYMATTR Value -15
TEXT 536 256 Left 2 ;A
TEXT 984 272 Left 2 ;B
TEXT 1384 232 Left 2 ;C
TEXT -176 568 Left 2 !.param alpha=0.00385\n \n.param Rpt100=100\n.func Err(k) table(k,1,1,2,-1,3,-3,4,-4,5,-4,6,-5,7,-6,8,-7,9,-9,10,-9,11,-11,12,-13,13,-14,14,-16,15,-16,16,-15,17,-5,18,-3,19,-1,20,1)\n.func dR(k) Rpt100*alpha*Err(k)\n \n \n.step param k 1 20 1\n \n \n.tran 0 10m
